src/test/resources/netPositionsData/germanPreMergedIgmFile.uct
##C 2007.05.01

##N
##ZDE
ASLACK11 SLACK        0 2 400.00   10.00   10.00   10.00   10.00   20.00   20.00
ALOAD111 LOAD         1 2 400.00   20.00   20.00 4043.53   20.00   20.00   20.00
APE_AH21 SHADOW       1 2 400.00   10.00   10.00   10.00   10.00 -2888.0   20.00
ABE_OX21 SHADOW       1 2 400.00   10.00   10.00   10.00   10.00 -567.63   20.00
ALI_OB12 SHADOW       1 2 400.00   10.00   10.00   10.00   10.00 -587.94   20.00
##ZXX
XPE_AH21 CORE         1 0 400.00   10.00   10.00   10.00   10.00   20.00   20.00
XBE_OX21 OUT          1 0 400.00   10.00   10.00   10.00   10.00   20.00   20.00
XLI_OB1A VIRTHUB      1 0 400.00   10.00   10.00   10.00   10.00   20.00   20.00
##L
APE_AH21 XPE_AH21 1 0  20.00  20.00   20.00   5000
ABE_OX21 XBE_OX21 1 0  20.00  20.00   20.00   5000
ALI_OB12 XLI_OB1A 1 0  20.00  20.00   20.00   5000
##T
##R
